Using logfiles ['/workspace/accel-sim-framework/util/job_launching/../job_launching/logfiles/sim_log.sweep_core_20260603_235550_core025.26.06.03-Wednesday.txt']
procman.id	Node                          	App                 	AppArgs             	Version             	Config    	RunningTime    	Mem   	JobStatus                     	Basic GPGPU-Sim Stats                             	
-----------------------------------------------------------------------------------------------------------------------------------------------------------------------------------------------------------------------------
146       	b00937208672                  	vectoradd           	N1048576_I1_B256    	accelsim-commit-3016	RTX3070-SA	              0	0     	COMPLETE_NO_OTHER_INFO        	SIMRATE_IPS=1 M	SIM_TIME=12 sec (12 sec)	TOT_IPC=594	TOT_INSN=16 M	TOT_CYCLE=26 K	
147       	b00937208672                  	compute             	N262144_I100_B256   	accelsim-commit-3016	RTX3070-SA	              0	0     	COMPLETE_NO_OTHER_INFO        	SIMRATE_IPS=10 M	SIM_TIME=9 sec (9 sec)	TOT_IPC=4 K	TOT_INSN=93 M	TOT_CYCLE=25 K	
148       	b00937208672                  	pointer             	N262144_I20_B256    	accelsim-commit-3016	RTX3070-SA	              0	0     	COMPLETE_NO_OTHER_INFO        	SIMRATE_IPS=2 M	SIM_TIME=8 sec (8 sec)	TOT_IPC=1 K	TOT_INSN=19 M	TOT_CYCLE=17 K	
149       	b00937208672                  	shared              	N262144_I20_B256    	accelsim-commit-3016	RTX3070-SA	              0	0     	COMPLETE_NO_OTHER_INFO        	SIMRATE_IPS=5 M	SIM_TIME=11 sec (11 sec)	TOT_IPC=2 K	TOT_INSN=59 M	TOT_CYCLE=26 K	
150       	b00937208672                  	sfu                 	N262144_I20_B256    	accelsim-commit-3016	RTX3070-SA	              0	0     	COMPLETE_NO_OTHER_INFO        	SIMRATE_IPS=12 M	SIM_TIME=24 sec (24 sec)	TOT_IPC=5 K	TOT_INSN=292 M	TOT_CYCLE=64 K	
-----------------------------------------------------------------------------------------------------------------------------------------------------------------------------------------------------------------------------
