ProcMan spawned [pid=29554]
Cannot find a supported job management system. Spawning jobs locally.
Running Simulations with GPGPU-Sim built from 
accelsim-commit-3016c65_modified_0.0_26-06-03-15-48-28gpgpu-sim_git-commit-6c3cf4ff_modified_0.0
 
Using configs: RTX3070-SASS-CORE075
Benchmark: synthetic_reduced
Run Subdir = RTX3070-SASS-CORE075
Parameters = 
#SASS
#SASS-Driven Accel-Sim

#CORE075
-gpgpu_clock_domains 849:849:849:3500.5

Base config file = /workspace/accel-sim-framework/gpu-simulator/gpgpu-sim/configs/tested-cfgs/SM86_RTX3070/gpgpusim.config
Job 136 queued (vectoradd-N1048576_I1_B256 RTX3070-SASS-CORE075)
Job 137 queued (compute-N262144_I100_B256 RTX3070-SASS-CORE075)
Job 138 queued (pointer-N262144_I20_B256 RTX3070-SASS-CORE075)
Job 139 queued (shared-N262144_I20_B256 RTX3070-SASS-CORE075)
Job 140 queued (sfu-N262144_I20_B256 RTX3070-SASS-CORE075)
