ProcMan spawned [pid=30547]
Cannot find a supported job management system. Spawning jobs locally.
Running Simulations with GPGPU-Sim built from 
accelsim-commit-3016c65_modified_0.0_26-06-03-15-48-28gpgpu-sim_git-commit-6c3cf4ff_modified_0.0
 
Using configs: RTX3070-SASS-MEM025
Benchmark: synthetic_reduced
Run Subdir = RTX3070-SASS-MEM025
Parameters = 
#SASS
#SASS-Driven Accel-Sim

#MEM025
-gpgpu_clock_domains 1132:1132:1132:875.125

Base config file = /workspace/accel-sim-framework/gpu-simulator/gpgpu-sim/configs/tested-cfgs/SM86_RTX3070/gpgpusim.config
Job 166 queued (vectoradd-N1048576_I1_B256 RTX3070-SASS-MEM025)
Job 167 queued (compute-N262144_I100_B256 RTX3070-SASS-MEM025)
Job 168 queued (pointer-N262144_I20_B256 RTX3070-SASS-MEM025)
Job 169 queued (shared-N262144_I20_B256 RTX3070-SASS-MEM025)
Job 170 queued (sfu-N262144_I20_B256 RTX3070-SASS-MEM025)
