Using logfiles ['/workspace/accel-sim-framework/util/job_launching/../job_launching/logfiles/sim_log.sweep_mem_20260603_235758_mem075.26.06.03-Wednesday.txt']
procman.id	Node                          	App                 	AppArgs             	Version             	Config    	RunningTime    	Mem   	JobStatus                     	Basic GPGPU-Sim Stats                             	
-----------------------------------------------------------------------------------------------------------------------------------------------------------------------------------------------------------------------------
156       	b00937208672                  	vectoradd           	N1048576_I1_B256    	accelsim-commit-3016	RTX3070-SA	              0	0     	COMPLETE_NO_OTHER_INFO        	SIMRATE_IPS=925 K	SIM_TIME=17 sec (17 sec)	TOT_IPC=343	TOT_INSN=16 M	TOT_CYCLE=46 K	
157       	b00937208672                  	compute             	N262144_I100_B256   	accelsim-commit-3016	RTX3070-SA	              0	0     	COMPLETE_NO_OTHER_INFO        	SIMRATE_IPS=12 M	SIM_TIME=8 sec (8 sec)	TOT_IPC=4 K	TOT_INSN=93 M	TOT_CYCLE=25 K	
158       	b00937208672                  	pointer             	N262144_I20_B256    	accelsim-commit-3016	RTX3070-SA	              0	0     	COMPLETE_NO_OTHER_INFO        	SIMRATE_IPS=3 M	SIM_TIME=7 sec (7 sec)	TOT_IPC=1 K	TOT_INSN=19 M	TOT_CYCLE=17 K	
159       	b00937208672                  	shared              	N262144_I20_B256    	accelsim-commit-3016	RTX3070-SA	              0	0     	COMPLETE_NO_OTHER_INFO        	SIMRATE_IPS=6 M	SIM_TIME=10 sec (10 sec)	TOT_IPC=2 K	TOT_INSN=59 M	TOT_CYCLE=26 K	
160       	b00937208672                  	sfu                 	N262144_I20_B256    	accelsim-commit-3016	RTX3070-SA	              0	0     	COMPLETE_NO_OTHER_INFO        	SIMRATE_IPS=13 M	SIM_TIME=22 sec (22 sec)	TOT_IPC=5 K	TOT_INSN=292 M	TOT_CYCLE=64 K	
-----------------------------------------------------------------------------------------------------------------------------------------------------------------------------------------------------------------------------
