Using logfiles ['/workspace/accel-sim-framework/util/job_launching/../job_launching/logfiles/sim_log.sweep_mem_n2_20260611_090014_mem025.26.06.11-Thursday.txt']
procman.id	Node                          	App                 	AppArgs             	Version             	Config    	RunningTime    	Mem   	JobStatus                     	Basic GPGPU-Sim Stats                             	
-----------------------------------------------------------------------------------------------------------------------------------------------------------------------------------------------------------------------------
76        	20215f4c6fba                  	synthetic_kernels_dc	compute_2097152_10_2	accelsim-commit-3016	RTX3070-SA	0:00:30        	282 M 	COMPLETE_NO_OTHER_INFO        	SIMRATE_IPS=8 M	SIM_TIME=38 sec (38 sec)	TOT_IPC=2 K	TOT_INSN=298 M	TOT_CYCLE=146 K	
77        	20215f4c6fba                  	synthetic_kernels_dc	vectoradd_2097152_10	accelsim-commit-3016	RTX3070-SA	0:02:30        	314 M 	COMPLETE_NO_OTHER_INFO        	SIMRATE_IPS=364 K	SIM_TIME=2 min, 53 sec (173 sec)	TOT_IPC=110	TOT_INSN=63 M	TOT_CYCLE=572 K	
78        	20215f4c6fba                  	synthetic_kernels_dc	shared_2097152_10_25	accelsim-commit-3016	RTX3070-SA	0:02:00        	345 M 	COMPLETE_NO_OTHER_INFO        	SIMRATE_IPS=4 M	SIM_TIME=2 min, 7 sec (127 sec)	TOT_IPC=2 K	TOT_INSN=570 M	TOT_CYCLE=336 K	
-----------------------------------------------------------------------------------------------------------------------------------------------------------------------------------------------------------------------------
