ProcMan spawned [pid=7081]
Cannot find a supported job management system. Spawning jobs locally.
Running Simulations with GPGPU-Sim built from 
accelsim-commit-3016c65_modified_0.0_26-06-03-15-48-28gpgpu-sim_git-commit-6c3cf4ff_modified_0.0
 
Using configs: RTX3070-SASS
Benchmark: synthetic_large3_n2
Run Subdir = RTX3070-SASS
Parameters = 
#SASS
#SASS-Driven Accel-Sim

Base config file = /workspace/accel-sim-framework/gpu-simulator/gpgpu-sim/configs/tested-cfgs/SM86_RTX3070/gpgpusim.config
Job 67 queued (synthetic_kernels_dc-compute_2097152_10_256 RTX3070-SASS)
Job 68 queued (synthetic_kernels_dc-vectoradd_2097152_10_256 RTX3070-SASS)
Job 69 queued (synthetic_kernels_dc-shared_2097152_10_256 RTX3070-SASS)
