Using logfiles ['/workspace/accel-sim-framework/util/job_launching/../job_launching/logfiles/sim_log.sweep_mem_n2_20260611_090014_mem05.26.06.11-Thursday.txt']
procman.id	Node                          	App                 	AppArgs             	Version             	Config    	RunningTime    	Mem   	JobStatus                     	Basic GPGPU-Sim Stats                             	
-----------------------------------------------------------------------------------------------------------------------------------------------------------------------------------------------------------------------------
73        	20215f4c6fba                  	synthetic_kernels_dc	compute_2097152_10_2	accelsim-commit-3016	RTX3070-SA	0:00:30        	276 M 	COMPLETE_NO_OTHER_INFO        	SIMRATE_IPS=10 M	SIM_TIME=31 sec (31 sec)	TOT_IPC=3 K	TOT_INSN=298 M	TOT_CYCLE=87 K	
74        	20215f4c6fba                  	synthetic_kernels_dc	vectoradd_2097152_10	accelsim-commit-3016	RTX3070-SA	0:01:30        	314 M 	COMPLETE_NO_OTHER_INFO        	SIMRATE_IPS=669 K	SIM_TIME=1 min, 34 sec (94 sec)	TOT_IPC=216	TOT_INSN=63 M	TOT_CYCLE=291 K	
75        	20215f4c6fba                  	synthetic_kernels_dc	shared_2097152_10_25	accelsim-commit-3016	RTX3070-SA	0:01:30        	345 M 	COMPLETE_NO_OTHER_INFO        	SIMRATE_IPS=6 M	SIM_TIME=1 min, 32 sec (92 sec)	TOT_IPC=3 K	TOT_INSN=570 M	TOT_CYCLE=189 K	
-----------------------------------------------------------------------------------------------------------------------------------------------------------------------------------------------------------------------------
