Using logfiles ['/workspace/accel-sim-framework/util/job_launching/../job_launching/logfiles/sim_log.sweep_mem_n4_20260611_104009_mem025.26.06.11-Thursday.txt']
procman.id	Node                          	App                 	AppArgs             	Version             	Config    	RunningTime    	Mem   	JobStatus                     	Basic GPGPU-Sim Stats                             	
-----------------------------------------------------------------------------------------------------------------------------------------------------------------------------------------------------------------------------
112       	20215f4c6fba                  	synthetic_kernels_dc	compute_4194304_10_2	accelsim-commit-3016	RTX3070-SA	0:01:00        	284 M 	COMPLETE_NO_OTHER_INFO        	SIMRATE_IPS=7 M	SIM_TIME=1 min, 21 sec (81 sec)	TOT_IPC=2 K	TOT_INSN=596 M	TOT_CYCLE=316 K	
113       	20215f4c6fba                  	synthetic_kernels_dc	vectoradd_4194304_10	accelsim-commit-3016	RTX3070-SA	0:05:30        	315 M 	COMPLETE_NO_OTHER_INFO        	SIMRATE_IPS=379 K	SIM_TIME=5 min, 32 sec (332 sec)	TOT_IPC=112	TOT_INSN=126 M	TOT_CYCLE=1 M	
114       	20215f4c6fba                  	synthetic_kernels_dc	shared_4194304_10_25	accelsim-commit-3016	RTX3070-SA	0:04:00        	345 M 	COMPLETE_NO_OTHER_INFO        	SIMRATE_IPS=4 M	SIM_TIME=4 min, 18 sec (258 sec)	TOT_IPC=2 K	TOT_INSN=1 G	TOT_CYCLE=685 K	
-----------------------------------------------------------------------------------------------------------------------------------------------------------------------------------------------------------------------------
