Using logfiles ['/workspace/accel-sim-framework/util/job_launching/../job_launching/logfiles/sim_log.sweep_mem_n4_20260611_104009_mem075.26.06.11-Thursday.txt']
procman.id	Node                          	App                 	AppArgs             	Version             	Config    	RunningTime    	Mem   	JobStatus                     	Basic GPGPU-Sim Stats                             	
-----------------------------------------------------------------------------------------------------------------------------------------------------------------------------------------------------------------------------
106       	20215f4c6fba                  	synthetic_kernels_dc	compute_4194304_10_2	accelsim-commit-3016	RTX3070-SA	0:00:30        	277 M 	COMPLETE_NO_OTHER_INFO        	SIMRATE_IPS=10 M	SIM_TIME=59 sec (59 sec)	TOT_IPC=4 K	TOT_INSN=596 M	TOT_CYCLE=141 K	
107       	20215f4c6fba                  	synthetic_kernels_dc	vectoradd_4194304_10	accelsim-commit-3016	RTX3070-SA	0:02:00        	315 M 	COMPLETE_NO_OTHER_INFO        	SIMRATE_IPS=886 K	SIM_TIME=2 min, 22 sec (142 sec)	TOT_IPC=330	TOT_INSN=126 M	TOT_CYCLE=381 K	
108       	20215f4c6fba                  	synthetic_kernels_dc	shared_4194304_10_25	accelsim-commit-3016	RTX3070-SA	0:02:30        	345 M 	COMPLETE_NO_OTHER_INFO        	SIMRATE_IPS=7 M	SIM_TIME=2 min, 51 sec (171 sec)	TOT_IPC=3 K	TOT_INSN=1 G	TOT_CYCLE=334 K	
-----------------------------------------------------------------------------------------------------------------------------------------------------------------------------------------------------------------------------
