Using logfiles ['/workspace/accel-sim-framework/util/job_launching/../job_launching/logfiles/sim_log.sweep_mem_n4_20260611_104009_mem05.26.06.11-Thursday.txt']
procman.id	Node                          	App                 	AppArgs             	Version             	Config    	RunningTime    	Mem   	JobStatus                     	Basic GPGPU-Sim Stats                             	
-----------------------------------------------------------------------------------------------------------------------------------------------------------------------------------------------------------------------------
109       	20215f4c6fba                  	synthetic_kernels_dc	compute_4194304_10_2	accelsim-commit-3016	RTX3070-SA	0:01:00        	276 M 	COMPLETE_NO_OTHER_INFO        	SIMRATE_IPS=10 M	SIM_TIME=1 min, 2 sec (62 sec)	TOT_IPC=3 K	TOT_INSN=596 M	TOT_CYCLE=172 K	
110       	20215f4c6fba                  	synthetic_kernels_dc	vectoradd_4194304_10	accelsim-commit-3016	RTX3070-SA	0:03:00        	315 M 	COMPLETE_NO_OTHER_INFO        	SIMRATE_IPS=662 K	SIM_TIME=3 min, 10 sec (190 sec)	TOT_IPC=223	TOT_INSN=126 M	TOT_CYCLE=565 K	
111       	20215f4c6fba                  	synthetic_kernels_dc	shared_4194304_10_25	accelsim-commit-3016	RTX3070-SA	0:02:30        	345 M 	COMPLETE_NO_OTHER_INFO        	SIMRATE_IPS=6 M	SIM_TIME=2 min, 58 sec (178 sec)	TOT_IPC=3 K	TOT_INSN=1 G	TOT_CYCLE=362 K	
-----------------------------------------------------------------------------------------------------------------------------------------------------------------------------------------------------------------------------
