Using logfiles ['/workspace/accel-sim-framework/util/job_launching/../job_launching/logfiles/sim_log.sweep_core_20260611_080749_core025.26.06.11-Thursday.txt']
procman.id	Node                          	App                 	AppArgs             	Version             	Config    	RunningTime    	Mem   	JobStatus                     	Basic GPGPU-Sim Stats                             	
-----------------------------------------------------------------------------------------------------------------------------------------------------------------------------------------------------------------------------
28        	20215f4c6fba                  	synthetic_kernels_dc	compute_1048576_10_2	accelsim-commit-3016	RTX3070-SA	              0	0     	COMPLETE_NO_OTHER_INFO        	SIMRATE_IPS=9 M	SIM_TIME=16 sec (16 sec)	TOT_IPC=3 K	TOT_INSN=149 M	TOT_CYCLE=44 K	
29        	20215f4c6fba                  	synthetic_kernels_dc	vectoradd_1048576_10	accelsim-commit-3016	RTX3070-SA	              0	0     	COMPLETE_NO_OTHER_INFO        	SIMRATE_IPS=1 M	SIM_TIME=22 sec (22 sec)	TOT_IPC=588	TOT_INSN=31 M	TOT_CYCLE=53 K	
30        	20215f4c6fba                  	synthetic_kernels_dc	shared_1048576_10_25	accelsim-commit-3016	RTX3070-SA	0:00:30        	344 M 	COMPLETE_NO_OTHER_INFO        	SIMRATE_IPS=6 M	SIM_TIME=48 sec (48 sec)	TOT_IPC=3 K	TOT_INSN=285 M	TOT_CYCLE=96 K	
-----------------------------------------------------------------------------------------------------------------------------------------------------------------------------------------------------------------------------
