Using logfiles ['/workspace/accel-sim-framework/util/job_launching/../job_launching/logfiles/sim_log.sweep_mem_20260611_081159_mem075.26.06.11-Thursday.txt']
procman.id	Node                          	App                 	AppArgs             	Version             	Config    	RunningTime    	Mem   	JobStatus                     	Basic GPGPU-Sim Stats                             	
-----------------------------------------------------------------------------------------------------------------------------------------------------------------------------------------------------------------------------
34        	20215f4c6fba                  	synthetic_kernels_dc	compute_1048576_10_2	accelsim-commit-3016	RTX3070-SA	              0	0     	COMPLETE_NO_OTHER_INFO        	SIMRATE_IPS=10 M	SIM_TIME=15 sec (15 sec)	TOT_IPC=3 K	TOT_INSN=149 M	TOT_CYCLE=44 K	
35        	20215f4c6fba                  	synthetic_kernels_dc	vectoradd_1048576_10	accelsim-commit-3016	RTX3070-SA	0:00:30        	314 M 	COMPLETE_NO_OTHER_INFO        	SIMRATE_IPS=874 K	SIM_TIME=36 sec (36 sec)	TOT_IPC=320	TOT_INSN=31 M	TOT_CYCLE=98 K	
36        	20215f4c6fba                  	synthetic_kernels_dc	shared_1048576_10_25	accelsim-commit-3016	RTX3070-SA	0:00:30        	344 M 	COMPLETE_NO_OTHER_INFO        	SIMRATE_IPS=6 M	SIM_TIME=45 sec (45 sec)	TOT_IPC=3 K	TOT_INSN=285 M	TOT_CYCLE=96 K	
-----------------------------------------------------------------------------------------------------------------------------------------------------------------------------------------------------------------------------
