Using logfiles ['/workspace/accel-sim-framework/util/job_launching/../job_launching/logfiles/sim_log.sweep_mem_20260611_081159_mem025.26.06.11-Thursday.txt']
procman.id	Node                          	App                 	AppArgs             	Version             	Config    	RunningTime    	Mem   	JobStatus                     	Basic GPGPU-Sim Stats                             	
-----------------------------------------------------------------------------------------------------------------------------------------------------------------------------------------------------------------------------
40        	20215f4c6fba                  	synthetic_kernels_dc	compute_1048576_10_2	accelsim-commit-3016	RTX3070-SA	              0	0     	COMPLETE_NO_OTHER_INFO        	SIMRATE_IPS=8 M	SIM_TIME=18 sec (18 sec)	TOT_IPC=2 K	TOT_INSN=149 M	TOT_CYCLE=66 K	
41        	20215f4c6fba                  	synthetic_kernels_dc	vectoradd_1048576_10	accelsim-commit-3016	RTX3070-SA	0:01:00        	314 M 	COMPLETE_NO_OTHER_INFO        	SIMRATE_IPS=384 K	SIM_TIME=1 min, 22 sec (82 sec)	TOT_IPC=116	TOT_INSN=31 M	TOT_CYCLE=271 K	
42        	20215f4c6fba                  	synthetic_kernels_dc	shared_1048576_10_25	accelsim-commit-3016	RTX3070-SA	0:00:30        	344 M 	COMPLETE_NO_OTHER_INFO        	SIMRATE_IPS=5 M	SIM_TIME=59 sec (59 sec)	TOT_IPC=2 K	TOT_INSN=285 M	TOT_CYCLE=162 K	
-----------------------------------------------------------------------------------------------------------------------------------------------------------------------------------------------------------------------------
