ProcMan spawned [pid=7031]
Cannot find a supported job management system. Spawning jobs locally.
Running Simulations with GPGPU-Sim built from 
accelsim-commit-3016c65_modified_0.0_26-06-03-15-48-28gpgpu-sim_git-commit-6c3cf4ff_modified_0.0
 
Using configs: RTX3070-SASS
Benchmark: synthetic_reduced
Run Subdir = RTX3070-SASS
Parameters = 
#SASS
#SASS-Driven Accel-Sim

Base config file = /workspace/accel-sim-framework/gpu-simulator/gpgpu-sim/configs/tested-cfgs/SM86_RTX3070/gpgpusim.config
Job 86 queued (vectoradd-N1048576_I1_B256 RTX3070-SASS)
Job 87 queued (compute-N262144_I100_B256 RTX3070-SASS)
Job 88 queued (pointer-N262144_I20_B256 RTX3070-SASS)
Job 89 queued (shared-N262144_I20_B256 RTX3070-SASS)
Job 90 queued (sfu-N262144_I20_B256 RTX3070-SASS)
Traceback (most recent call last):
  File "/workspace/accel-sim-framework/util/job_launching/procman.py", line 602, in <module>
    main()
  File "/workspace/accel-sim-framework/util/job_launching/procman.py", line 595, in main
    time.sleep(options.sleepTime)
KeyboardInterrupt
