Using logfiles ['/workspace/accel-sim-framework/util/job_launching/../job_launching/logfiles/sim_log.sweep_sm_20260603_215047_sm075.26.06.03-Wednesday.txt']
procman.id	Node                          	App                 	AppArgs             	Version             	Config    	RunningTime    	Mem   	JobStatus                     	Basic GPGPU-Sim Stats                             	
-----------------------------------------------------------------------------------------------------------------------------------------------------------------------------------------------------------------------------
96        	b00937208672                  	vectoradd           	N1048576_I1_B256    	accelsim-commit-3016	RTX3070-SA	              0	0     	COMPLETE_NO_OTHER_INFO        	SIMRATE_IPS=1 M	SIM_TIME=11 sec (11 sec)	TOT_IPC=419	TOT_INSN=16 M	TOT_CYCLE=38 K	
97        	b00937208672                  	compute             	N262144_I100_B256   	accelsim-commit-3016	RTX3070-SA	              0	0     	COMPLETE_NO_OTHER_INFO        	SIMRATE_IPS=12 M	SIM_TIME=8 sec (8 sec)	TOT_IPC=3 K	TOT_INSN=93 M	TOT_CYCLE=30 K	
98        	b00937208672                  	pointer             	N262144_I20_B256    	accelsim-commit-3016	RTX3070-SA	              0	0     	COMPLETE_NO_OTHER_INFO        	SIMRATE_IPS=3 M	SIM_TIME=7 sec (7 sec)	TOT_IPC=968	TOT_INSN=19 M	TOT_CYCLE=20 K	
99        	b00937208672                  	shared              	N262144_I20_B256    	accelsim-commit-3016	RTX3070-SA	              0	0     	COMPLETE_NO_OTHER_INFO        	SIMRATE_IPS=7 M	SIM_TIME=9 sec (9 sec)	TOT_IPC=2 K	TOT_INSN=59 M	TOT_CYCLE=31 K	
100       	b00937208672                  	sfu                 	N262144_I20_B256    	accelsim-commit-3016	RTX3070-SA	              0	0     	COMPLETE_NO_OTHER_INFO        	SIMRATE_IPS=13 M	SIM_TIME=22 sec (22 sec)	TOT_IPC=4 K	TOT_INSN=292 M	TOT_CYCLE=78 K	
-----------------------------------------------------------------------------------------------------------------------------------------------------------------------------------------------------------------------------
