Using logfiles ['/workspace/accel-sim-framework/util/job_launching/../job_launching/logfiles/sim_log.sweep_sm_20260603_215047_sm025.26.06.03-Wednesday.txt']
procman.id	Node                          	App                 	AppArgs             	Version             	Config    	RunningTime    	Mem   	JobStatus                     	Basic GPGPU-Sim Stats                             	
-----------------------------------------------------------------------------------------------------------------------------------------------------------------------------------------------------------------------------
106       	b00937208672                  	vectoradd           	N1048576_I1_B256    	accelsim-commit-3016	RTX3070-SA	              0	0     	COMPLETE_NO_OTHER_INFO        	SIMRATE_IPS=2 M	SIM_TIME=9 sec (9 sec)	TOT_IPC=221	TOT_INSN=16 M	TOT_CYCLE=71 K	
107       	b00937208672                  	compute             	N262144_I100_B256   	accelsim-commit-3016	RTX3070-SA	              0	0     	COMPLETE_NO_OTHER_INFO        	SIMRATE_IPS=12 M	SIM_TIME=8 sec (8 sec)	TOT_IPC=1 K	TOT_INSN=93 M	TOT_CYCLE=75 K	
108       	b00937208672                  	pointer             	N262144_I20_B256    	accelsim-commit-3016	RTX3070-SA	              0	0     	COMPLETE_NO_OTHER_INFO        	SIMRATE_IPS=3 M	SIM_TIME=6 sec (6 sec)	TOT_IPC=417	TOT_INSN=19 M	TOT_CYCLE=46 K	
109       	b00937208672                  	shared              	N262144_I20_B256    	accelsim-commit-3016	RTX3070-SA	              0	0     	COMPLETE_NO_OTHER_INFO        	SIMRATE_IPS=7 M	SIM_TIME=9 sec (9 sec)	TOT_IPC=796	TOT_INSN=59 M	TOT_CYCLE=74 K	
110       	b00937208672                  	sfu                 	N262144_I20_B256    	accelsim-commit-3016	RTX3070-SA	              0	0     	COMPLETE_NO_OTHER_INFO        	SIMRATE_IPS=13 M	SIM_TIME=23 sec (23 sec)	TOT_IPC=1 K	TOT_INSN=292 M	TOT_CYCLE=224 K	
-----------------------------------------------------------------------------------------------------------------------------------------------------------------------------------------------------------------------------
