Using logfiles ['/workspace/accel-sim-framework/util/job_launching/../job_launching/logfiles/sim_log.sweep_sm_n2_20260611_084715_sm05.26.06.11-Thursday.txt']
procman.id	Node                          	App                 	AppArgs             	Version             	Config    	RunningTime    	Mem   	JobStatus                     	Basic GPGPU-Sim Stats                             	
-----------------------------------------------------------------------------------------------------------------------------------------------------------------------------------------------------------------------------
49        	20215f4c6fba                  	synthetic_kernels_dc	compute_2097152_10_2	accelsim-commit-3016	RTX3070-SA	              0	0     	COMPLETE_NO_OTHER_INFO        	SIMRATE_IPS=10 M	SIM_TIME=30 sec (30 sec)	TOT_IPC=2 K	TOT_INSN=298 M	TOT_CYCLE=141 K	
50        	20215f4c6fba                  	synthetic_kernels_dc	vectoradd_2097152_10	accelsim-commit-3016	RTX3070-SA	0:00:30        	181 M 	COMPLETE_NO_OTHER_INFO        	SIMRATE_IPS=2 M	SIM_TIME=39 sec (39 sec)	TOT_IPC=389	TOT_INSN=63 M	TOT_CYCLE=162 K	
51        	20215f4c6fba                  	synthetic_kernels_dc	shared_2097152_10_25	accelsim-commit-3016	RTX3070-SA	0:01:00        	196 M 	COMPLETE_NO_OTHER_INFO        	SIMRATE_IPS=7 M	SIM_TIME=1 min, 24 sec (84 sec)	TOT_IPC=2 K	TOT_INSN=570 M	TOT_CYCLE=333 K	
-----------------------------------------------------------------------------------------------------------------------------------------------------------------------------------------------------------------------------
