Using logfiles ['/workspace/accel-sim-framework/util/job_launching/../job_launching/logfiles/sim_log.sweep_sm_n2_20260611_084715_sm025.26.06.11-Thursday.txt']
procman.id	Node                          	App                 	AppArgs             	Version             	Config    	RunningTime    	Mem   	JobStatus                     	Basic GPGPU-Sim Stats                             	
-----------------------------------------------------------------------------------------------------------------------------------------------------------------------------------------------------------------------------
52        	20215f4c6fba                  	synthetic_kernels_dc	compute_2097152_10_2	accelsim-commit-3016	RTX3070-SA	0:00:30        	107 M 	COMPLETE_NO_OTHER_INFO        	SIMRATE_IPS=10 M	SIM_TIME=30 sec (30 sec)	TOT_IPC=1 K	TOT_INSN=298 M	TOT_CYCLE=259 K	
53        	20215f4c6fba                  	synthetic_kernels_dc	vectoradd_2097152_10	accelsim-commit-3016	RTX3070-SA	0:00:30        	117 M 	COMPLETE_NO_OTHER_INFO        	SIMRATE_IPS=2 M	SIM_TIME=35 sec (35 sec)	TOT_IPC=229	TOT_INSN=63 M	TOT_CYCLE=275 K	
54        	20215f4c6fba                  	synthetic_kernels_dc	shared_2097152_10_25	accelsim-commit-3016	RTX3070-SA	0:01:00        	125 M 	COMPLETE_NO_OTHER_INFO        	SIMRATE_IPS=7 M	SIM_TIME=1 min, 22 sec (82 sec)	TOT_IPC=920	TOT_INSN=570 M	TOT_CYCLE=620 K	
-----------------------------------------------------------------------------------------------------------------------------------------------------------------------------------------------------------------------------
