116       	UNKNOWN                       	vectoradd           	N1048576_I1_B256    	accelsim-commit-3016	RTX3070-SA	UNKNOWN        	UNKNOWN	ABORTED, DEADLOCK             	                                                  	
117       	UNKNOWN                       	compute             	N262144_I100_B256   	accelsim-commit-3016	RTX3070-SA	UNKNOWN        	UNKNOWN	ABORTED, DEADLOCK             	                                                  	
119       	UNKNOWN                       	shared              	N262144_I20_B256    	accelsim-commit-3016	RTX3070-SA	UNKNOWN        	UNKNOWN	ABORTED, DEADLOCK             	                                                  	
120       	UNKNOWN                       	sfu                 	N262144_I20_B256    	accelsim-commit-3016	RTX3070-SA	UNKNOWN        	UNKNOWN	ABORTED, DEADLOCK             	                                                  	

**********************************************************
vectoradd-N1048576_I1_B256--RTX3070-SASS-SP075. Status=ABORTED, DEADLOCK
Last 10 line of /workspace/accel-sim-framework/util/job_launching/../../sim_run_12.9/vectoradd/N1048576_I1_B256/RTX3070-SASS-SP075/vectoradd-N1048576_I1_B256.accelsim-commit-3016c65_modified_0.0_26-06-03-15-48-28gpgpu-sim_git-commit-6c3cf4ff_modified_0.0.o116
------------------
Re-run the simulator in gdb and use debug routines in .gdbinit to debug this

GPGPU-Sim uArch: DEADLOCK  0(1184) 1(1184) 2(1216) 3(1216) 4(1280) 5(1184) 6(1344) 7(1216)  + others ...  + others ...  + others ...  + others ...  + others ...  + others ...  + others ...  + others ...  + others ...  + others ...  + others ...  + others ...  + others ...  + others ...  + others ...  + others ...  + others ...  + others ...  + others ...  + others ...  + others ...  + others ...  + others ...  + others ...  + others ...  + others ...  + others ...  + others ...  + others ...  + others ...  + others ...  + others ...  + others ...  + others ...  + others ...  + others ...  + others ...  + others ...
GPGPU-Sim uArch: DEADLOCK  shader cores no longer committing instructions [core(# threads)]:
GPGPU-Sim uArch: ERROR ** deadlock detected: last writeback core 20 @ gpu_sim_cycle 6436 (+ gpu_tot_sim_cycle 4294867296) (93564 cycles ago)


thread block = 275,0,0
thread block = 274,0,0
thread block = 273,0,0
------------------

Contents of /workspace/accel-sim-framework/util/job_launching/../../sim_run_12.9/vectoradd/N1048576_I1_B256/RTX3070-SASS-SP075/vectoradd-N1048576_I1_B256.accelsim-commit-3016c65_modified_0.0_26-06-03-15-48-28gpgpu-sim_git-commit-6c3cf4ff_modified_0.0.e116
------------------
/workspace/accel-sim-framework/util/job_launching/../../sim_run_12.9/vectoradd/N1048576_I1_B256/RTX3070-SASS-SP075/slurm.sim: line 54:  8114 Aborted                 (core dumped) /workspace/accel-sim-framework/util/job_launching/../../sim_run_12.9/gpgpu-sim-builds/accelsim-commit-3016c65_modified_0.0_26-06-03-15-48-28gpgpu-sim_git-commit-6c3cf4ff_modified_0.0/accel-sim.out -config ./gpgpusim.config -trace ./traces/kernelslist.g

------------------
**********************************************************
**********************************************************
compute-N262144_I100_B256--RTX3070-SASS-SP075. Status=ABORTED, DEADLOCK
Last 10 line of /workspace/accel-sim-framework/util/job_launching/../../sim_run_12.9/compute/N262144_I100_B256/RTX3070-SASS-SP075/compute-N262144_I100_B256.accelsim-commit-3016c65_modified_0.0_26-06-03-15-48-28gpgpu-sim_git-commit-6c3cf4ff_modified_0.0.o117
------------------
Re-run the simulator in gdb and use debug routines in .gdbinit to debug this

GPGPU-Sim uArch: DEADLOCK  0(1536) 1(1536) 2(1536) 3(1536) 4(1536) 5(1536) 6(1536) 7(1536)  + others ...  + others ...  + others ...  + others ...  + others ...  + others ...  + others ...  + others ...  + others ...  + others ...  + others ...  + others ...  + others ...  + others ...  + others ...  + others ...  + others ...  + others ...  + others ...  + others ...  + others ...  + others ...  + others ...  + others ...  + others ...  + others ...  + others ...  + others ...  + others ...  + others ...  + others ...  + others ...  + others ...  + others ...  + others ...  + others ...  + others ...  + others ...
GPGPU-Sim uArch: DEADLOCK  shader cores no longer committing instructions [core(# threads)]:
GPGPU-Sim uArch: ERROR ** deadlock detected: last writeback core 45 @ gpu_sim_cycle 5142 (+ gpu_tot_sim_cycle 4294867296) (94858 cycles ago)


thread block = 275,0,0
thread block = 274,0,0
thread block = 273,0,0
------------------

Contents of /workspace/accel-sim-framework/util/job_launching/../../sim_run_12.9/compute/N262144_I100_B256/RTX3070-SASS-SP075/compute-N262144_I100_B256.accelsim-commit-3016c65_modified_0.0_26-06-03-15-48-28gpgpu-sim_git-commit-6c3cf4ff_modified_0.0.e117
------------------
/workspace/accel-sim-framework/util/job_launching/../../sim_run_12.9/compute/N262144_I100_B256/RTX3070-SASS-SP075/slurm.sim: line 54:  8115 Aborted                 (core dumped) /workspace/accel-sim-framework/util/job_launching/../../sim_run_12.9/gpgpu-sim-builds/accelsim-commit-3016c65_modified_0.0_26-06-03-15-48-28gpgpu-sim_git-commit-6c3cf4ff_modified_0.0/accel-sim.out -config ./gpgpusim.config -trace ./traces/kernelslist.g

------------------
**********************************************************
**********************************************************
shared-N262144_I20_B256--RTX3070-SASS-SP075. Status=ABORTED, DEADLOCK
Last 10 line of /workspace/accel-sim-framework/util/job_launching/../../sim_run_12.9/shared/N262144_I20_B256/RTX3070-SASS-SP075/shared-N262144_I20_B256.accelsim-commit-3016c65_modified_0.0_26-06-03-15-48-28gpgpu-sim_git-commit-6c3cf4ff_modified_0.0.o119
------------------
Re-run the simulator in gdb and use debug routines in .gdbinit to debug this

GPGPU-Sim uArch: DEADLOCK  0(1536) 1(1536) 2(1536) 3(1536) 4(1536) 5(1536) 6(1536) 7(1536)  + others ...  + others ...  + others ...  + others ...  + others ...  + others ...  + others ...  + others ...  + others ...  + others ...  + others ...  + others ...  + others ...  + others ...  + others ...  + others ...  + others ...  + others ...  + others ...  + others ...  + others ...  + others ...  + others ...  + others ...  + others ...  + others ...  + others ...  + others ...  + others ...  + others ...  + others ...  + others ...  + others ...  + others ...  + others ...  + others ...  + others ...  + others ...
GPGPU-Sim uArch: DEADLOCK  shader cores no longer committing instructions [core(# threads)]:
GPGPU-Sim uArch: ERROR ** deadlock detected: last writeback core 5 @ gpu_sim_cycle 6534 (+ gpu_tot_sim_cycle 4294867296) (93466 cycles ago)


thread block = 275,0,0
thread block = 274,0,0
thread block = 273,0,0
------------------

Contents of /workspace/accel-sim-framework/util/job_launching/../../sim_run_12.9/shared/N262144_I20_B256/RTX3070-SASS-SP075/shared-N262144_I20_B256.accelsim-commit-3016c65_modified_0.0_26-06-03-15-48-28gpgpu-sim_git-commit-6c3cf4ff_modified_0.0.e119
------------------
/workspace/accel-sim-framework/util/job_launching/../../sim_run_12.9/shared/N262144_I20_B256/RTX3070-SASS-SP075/slurm.sim: line 54:  8118 Aborted                 (core dumped) /workspace/accel-sim-framework/util/job_launching/../../sim_run_12.9/gpgpu-sim-builds/accelsim-commit-3016c65_modified_0.0_26-06-03-15-48-28gpgpu-sim_git-commit-6c3cf4ff_modified_0.0/accel-sim.out -config ./gpgpusim.config -trace ./traces/kernelslist.g

------------------
**********************************************************
**********************************************************
sfu-N262144_I20_B256--RTX3070-SASS-SP075. Status=ABORTED, DEADLOCK
Last 10 line of /workspace/accel-sim-framework/util/job_launching/../../sim_run_12.9/sfu/N262144_I20_B256/RTX3070-SASS-SP075/sfu-N262144_I20_B256.accelsim-commit-3016c65_modified_0.0_26-06-03-15-48-28gpgpu-sim_git-commit-6c3cf4ff_modified_0.0.o120
------------------
Re-run the simulator in gdb and use debug routines in .gdbinit to debug this

GPGPU-Sim uArch: DEADLOCK  0(1536) 1(1536) 2(1536) 3(1536) 4(1536) 5(1536) 6(1536) 7(1536)  + others ...  + others ...  + others ...  + others ...  + others ...  + others ...  + others ...  + others ...  + others ...  + others ...  + others ...  + others ...  + others ...  + others ...  + others ...  + others ...  + others ...  + others ...  + others ...  + others ...  + others ...  + others ...  + others ...  + others ...  + others ...  + others ...  + others ...  + others ...  + others ...  + others ...  + others ...  + others ...  + others ...  + others ...  + others ...  + others ...  + others ...  + others ...
GPGPU-Sim uArch: DEADLOCK  shader cores no longer committing instructions [core(# threads)]:
GPGPU-Sim uArch: ERROR ** deadlock detected: last writeback core 45 @ gpu_sim_cycle 5227 (+ gpu_tot_sim_cycle 4294867296) (94773 cycles ago)


thread block = 275,0,0
thread block = 274,0,0
thread block = 273,0,0
------------------

Contents of /workspace/accel-sim-framework/util/job_launching/../../sim_run_12.9/sfu/N262144_I20_B256/RTX3070-SASS-SP075/sfu-N262144_I20_B256.accelsim-commit-3016c65_modified_0.0_26-06-03-15-48-28gpgpu-sim_git-commit-6c3cf4ff_modified_0.0.e120
------------------
/workspace/accel-sim-framework/util/job_launching/../../sim_run_12.9/sfu/N262144_I20_B256/RTX3070-SASS-SP075/slurm.sim: line 54:  8117 Aborted                 (core dumped) /workspace/accel-sim-framework/util/job_launching/../../sim_run_12.9/gpgpu-sim-builds/accelsim-commit-3016c65_modified_0.0_26-06-03-15-48-28gpgpu-sim_git-commit-6c3cf4ff_modified_0.0/accel-sim.out -config ./gpgpusim.config -trace ./traces/kernelslist.g

------------------
**********************************************************
