Using logfiles ['/workspace/accel-sim-framework/util/job_launching/../job_launching/logfiles/sim_log.sweep_sfu_20260603_235315_sfu075.26.06.03-Wednesday.txt']
procman.id	Node                          	App                 	AppArgs             	Version             	Config    	RunningTime    	Mem   	JobStatus                     	Basic GPGPU-Sim Stats                             	
-----------------------------------------------------------------------------------------------------------------------------------------------------------------------------------------------------------------------------
126       	UNKNOWN                       	vectoradd           	N1048576_I1_B256    	accelsim-commit-3016	RTX3070-SA	UNKNOWN        	UNKNOWN	COMPLETE_NO_OTHER_INFO        	SIMRATE_IPS=1 M	SIM_TIME=13 sec (13 sec)	TOT_IPC=432	TOT_INSN=16 M	TOT_CYCLE=36 K	
127       	UNKNOWN                       	compute             	N262144_I100_B256   	accelsim-commit-3016	RTX3070-SA	UNKNOWN        	UNKNOWN	COMPLETE_NO_OTHER_INFO        	SIMRATE_IPS=12 M	SIM_TIME=8 sec (8 sec)	TOT_IPC=4 K	TOT_INSN=93 M	TOT_CYCLE=25 K	
128       	UNKNOWN                       	pointer             	N262144_I20_B256    	accelsim-commit-3016	RTX3070-SA	UNKNOWN        	UNKNOWN	COMPLETE_NO_OTHER_INFO        	SIMRATE_IPS=3 M	SIM_TIME=7 sec (7 sec)	TOT_IPC=1 K	TOT_INSN=19 M	TOT_CYCLE=17 K	
129       	UNKNOWN                       	shared              	N262144_I20_B256    	accelsim-commit-3016	RTX3070-SA	UNKNOWN        	UNKNOWN	COMPLETE_NO_OTHER_INFO        	SIMRATE_IPS=6 M	SIM_TIME=10 sec (10 sec)	TOT_IPC=2 K	TOT_INSN=59 M	TOT_CYCLE=26 K	
130       	UNKNOWN                       	sfu                 	N262144_I20_B256    	accelsim-commit-3016	RTX3070-SA	UNKNOWN        	UNKNOWN	ABORTED, DEADLOCK             	                                                  	
-----------------------------------------------------------------------------------------------------------------------------------------------------------------------------------------------------------------------------
failed job log written to /workspace/accel-sim-framework/util/job_launching/../job_launching/logfiles/failed_job_log_sim_log.sweep_sfu_20260603_235315_sfu075.26.06.03-Wednesday.txt
