Using logfiles ['/workspace/accel-sim-framework/util/job_launching/../job_launching/logfiles/sim_log.sweep_core_n4_20260611_102733_core10.26.06.11-Thursday.txt']
procman.id	Node                          	App                 	AppArgs             	Version             	Config    	RunningTime    	Mem   	JobStatus                     	Basic GPGPU-Sim Stats                             	
-----------------------------------------------------------------------------------------------------------------------------------------------------------------------------------------------------------------------------
91        	20215f4c6fba                  	synthetic_kernels_dc	compute_4194304_10_2	accelsim-commit-3016	RTX3070-SA	0:00:30        	267 M 	COMPLETE_NO_OTHER_INFO        	SIMRATE_IPS=10 M	SIM_TIME=59 sec (59 sec)	TOT_IPC=4 K	TOT_INSN=596 M	TOT_CYCLE=141 K	
92        	20215f4c6fba                  	synthetic_kernels_dc	vectoradd_4194304_10	accelsim-commit-3016	RTX3070-SA	0:01:30        	315 M 	COMPLETE_NO_OTHER_INFO        	SIMRATE_IPS=1 M	SIM_TIME=1 min, 58 sec (118 sec)	TOT_IPC=436	TOT_INSN=126 M	TOT_CYCLE=289 K	
93        	20215f4c6fba                  	synthetic_kernels_dc	shared_4194304_10_25	accelsim-commit-3016	RTX3070-SA	0:02:30        	345 M 	COMPLETE_NO_OTHER_INFO        	SIMRATE_IPS=7 M	SIM_TIME=2 min, 52 sec (172 sec)	TOT_IPC=3 K	TOT_INSN=1 G	TOT_CYCLE=333 K	
-----------------------------------------------------------------------------------------------------------------------------------------------------------------------------------------------------------------------------
