Using logfiles ['/workspace/accel-sim-framework/util/job_launching/../job_launching/logfiles/sim_log.sweep_core_n4_20260611_102733_core025.26.06.11-Thursday.txt']
procman.id	Node                          	App                 	AppArgs             	Version             	Config    	RunningTime    	Mem   	JobStatus                     	Basic GPGPU-Sim Stats                             	
-----------------------------------------------------------------------------------------------------------------------------------------------------------------------------------------------------------------------------
100       	20215f4c6fba                  	synthetic_kernels_dc	compute_4194304_10_2	accelsim-commit-3016	RTX3070-SA	0:01:00        	277 M 	COMPLETE_NO_OTHER_INFO        	SIMRATE_IPS=9 M	SIM_TIME=1 min, 3 sec (63 sec)	TOT_IPC=4 K	TOT_INSN=596 M	TOT_CYCLE=141 K	
101       	20215f4c6fba                  	synthetic_kernels_dc	vectoradd_4194304_10	accelsim-commit-3016	RTX3070-SA	0:01:00        	315 M 	COMPLETE_NO_OTHER_INFO        	SIMRATE_IPS=1 M	SIM_TIME=1 min, 27 sec (87 sec)	TOT_IPC=720	TOT_INSN=126 M	TOT_CYCLE=175 K	
102       	20215f4c6fba                  	synthetic_kernels_dc	shared_4194304_10_25	accelsim-commit-3016	RTX3070-SA	0:03:00        	345 M 	COMPLETE_NO_OTHER_INFO        	SIMRATE_IPS=6 M	SIM_TIME=3 min, 4 sec (184 sec)	TOT_IPC=3 K	TOT_INSN=1 G	TOT_CYCLE=332 K	
-----------------------------------------------------------------------------------------------------------------------------------------------------------------------------------------------------------------------------
