ProcMan spawned [pid=12564]
Cannot find a supported job management system. Spawning jobs locally.
Running Simulations with GPGPU-Sim built from 
accelsim-commit-3016c65_modified_0.0_26-06-03-15-48-28gpgpu-sim_git-commit-6c3cf4ff_modified_0.0
 
Using configs: RTX3070-SASS-CORE050
Benchmark: synthetic_large3_n4
Run Subdir = RTX3070-SASS-CORE050
Parameters = 
#SASS
#SASS-Driven Accel-Sim

#CORE050
-gpgpu_clock_domains 566:566:566:3500.5

Base config file = /workspace/accel-sim-framework/gpu-simulator/gpgpu-sim/configs/tested-cfgs/SM86_RTX3070/gpgpusim.config
Job 97 queued (synthetic_kernels_dc-compute_4194304_10_256 RTX3070-SASS-CORE050)
Job 98 queued (synthetic_kernels_dc-vectoradd_4194304_10_256 RTX3070-SASS-CORE050)
Job 99 queued (synthetic_kernels_dc-shared_4194304_10_256 RTX3070-SASS-CORE050)
