Using logfiles ['/workspace/accel-sim-framework/util/job_launching/../job_launching/logfiles/sim_log.sweep_sm_n4_20260611_101528_sm05.26.06.11-Thursday.txt']
procman.id	Node                          	App                 	AppArgs             	Version             	Config    	RunningTime    	Mem   	JobStatus                     	Basic GPGPU-Sim Stats                             	
-----------------------------------------------------------------------------------------------------------------------------------------------------------------------------------------------------------------------------
85        	20215f4c6fba                  	synthetic_kernels_dc	compute_4194304_10_2	accelsim-commit-3016	RTX3070-SA	0:00:30        	160 M 	COMPLETE_NO_OTHER_INFO        	SIMRATE_IPS=10 M	SIM_TIME=59 sec (59 sec)	TOT_IPC=2 K	TOT_INSN=596 M	TOT_CYCLE=270 K	
86        	20215f4c6fba                  	synthetic_kernels_dc	vectoradd_4194304_10	accelsim-commit-3016	RTX3070-SA	0:01:00        	183 M 	COMPLETE_NO_OTHER_INFO        	SIMRATE_IPS=2 M	SIM_TIME=1 min, 17 sec (77 sec)	TOT_IPC=394	TOT_INSN=126 M	TOT_CYCLE=319 K	
87        	20215f4c6fba                  	synthetic_kernels_dc	shared_4194304_10_25	accelsim-commit-3016	RTX3070-SA	0:02:30        	196 M 	COMPLETE_NO_OTHER_INFO        	SIMRATE_IPS=7 M	SIM_TIME=2 min, 47 sec (167 sec)	TOT_IPC=2 K	TOT_INSN=1 G	TOT_CYCLE=647 K	
-----------------------------------------------------------------------------------------------------------------------------------------------------------------------------------------------------------------------------
