Using logfiles ['/workspace/accel-sim-framework/util/job_launching/../job_launching/logfiles/sim_log.sweep_sm_n4_20260611_101528_sm025.26.06.11-Thursday.txt']
procman.id	Node                          	App                 	AppArgs             	Version             	Config    	RunningTime    	Mem   	JobStatus                     	Basic GPGPU-Sim Stats                             	
-----------------------------------------------------------------------------------------------------------------------------------------------------------------------------------------------------------------------------
88        	20215f4c6fba                  	synthetic_kernels_dc	compute_4194304_10_2	accelsim-commit-3016	RTX3070-SA	0:00:30        	107 M 	COMPLETE_NO_OTHER_INFO        	SIMRATE_IPS=10 M	SIM_TIME=59 sec (59 sec)	TOT_IPC=1 K	TOT_INSN=596 M	TOT_CYCLE=507 K	
89        	20215f4c6fba                  	synthetic_kernels_dc	vectoradd_4194304_10	accelsim-commit-3016	RTX3070-SA	0:01:00        	119 M 	COMPLETE_NO_OTHER_INFO        	SIMRATE_IPS=2 M	SIM_TIME=1 min, 12 sec (72 sec)	TOT_IPC=232	TOT_INSN=126 M	TOT_CYCLE=542 K	
90        	20215f4c6fba                  	synthetic_kernels_dc	shared_4194304_10_25	accelsim-commit-3016	RTX3070-SA	0:02:30        	125 M 	COMPLETE_NO_OTHER_INFO        	SIMRATE_IPS=7 M	SIM_TIME=2 min, 47 sec (167 sec)	TOT_IPC=933	TOT_INSN=1 G	TOT_CYCLE=1 M	
-----------------------------------------------------------------------------------------------------------------------------------------------------------------------------------------------------------------------------
