Using logfiles ['/workspace/accel-sim-framework/util/job_launching/../job_launching/logfiles/sim_log.sweep_sm_20260611_080338_sm025.26.06.11-Thursday.txt']
procman.id	Node                          	App                 	AppArgs             	Version             	Config    	RunningTime    	Mem   	JobStatus                     	Basic GPGPU-Sim Stats                             	
-----------------------------------------------------------------------------------------------------------------------------------------------------------------------------------------------------------------------------
16        	20215f4c6fba                  	synthetic_kernels_dc	compute_1048576_10_2	accelsim-commit-3016	RTX3070-SA	              0	0     	COMPLETE_NO_OTHER_INFO        	SIMRATE_IPS=10 M	SIM_TIME=15 sec (15 sec)	TOT_IPC=1 K	TOT_INSN=149 M	TOT_CYCLE=136 K	
17        	20215f4c6fba                  	synthetic_kernels_dc	vectoradd_1048576_10	accelsim-commit-3016	RTX3070-SA	              0	0     	COMPLETE_NO_OTHER_INFO        	SIMRATE_IPS=2 M	SIM_TIME=17 sec (17 sec)	TOT_IPC=218	TOT_INSN=31 M	TOT_CYCLE=144 K	
18        	20215f4c6fba                  	synthetic_kernels_dc	shared_1048576_10_25	accelsim-commit-3016	RTX3070-SA	0:00:30        	125 M 	COMPLETE_NO_OTHER_INFO        	SIMRATE_IPS=7 M	SIM_TIME=42 sec (42 sec)	TOT_IPC=891	TOT_INSN=285 M	TOT_CYCLE=320 K	
-----------------------------------------------------------------------------------------------------------------------------------------------------------------------------------------------------------------------------
