Using logfiles ['/workspace/accel-sim-framework/util/job_launching/../job_launching/logfiles/sim_log.sweep_core_n2_20260611_085329_core075.26.06.11-Thursday.txt']
procman.id	Node                          	App                 	AppArgs             	Version             	Config    	RunningTime    	Mem   	JobStatus                     	Basic GPGPU-Sim Stats                             	
-----------------------------------------------------------------------------------------------------------------------------------------------------------------------------------------------------------------------------
58        	20215f4c6fba                  	synthetic_kernels_dc	compute_2097152_10_2	accelsim-commit-3016	RTX3070-SA	0:00:30        	277 M 	COMPLETE_NO_OTHER_INFO        	SIMRATE_IPS=10 M	SIM_TIME=30 sec (30 sec)	TOT_IPC=4 K	TOT_INSN=298 M	TOT_CYCLE=77 K	
59        	20215f4c6fba                  	synthetic_kernels_dc	vectoradd_2097152_10	accelsim-commit-3016	RTX3070-SA	0:00:30        	314 M 	COMPLETE_NO_OTHER_INFO        	SIMRATE_IPS=1 M	SIM_TIME=48 sec (48 sec)	TOT_IPC=531	TOT_INSN=63 M	TOT_CYCLE=119 K	
60        	20215f4c6fba                  	synthetic_kernels_dc	shared_2097152_10_25	accelsim-commit-3016	RTX3070-SA	0:01:00        	344 M 	COMPLETE_NO_OTHER_INFO        	SIMRATE_IPS=7 M	SIM_TIME=1 min, 26 sec (86 sec)	TOT_IPC=3 K	TOT_INSN=570 M	TOT_CYCLE=175 K	
-----------------------------------------------------------------------------------------------------------------------------------------------------------------------------------------------------------------------------
